    6  
step number 0
N	0.233220	1.144910	0.244620
H	0.218940	1.132450	1.261220
H	1.200770	1.130940	-0.067410
H	-0.297090	0.325870	-0.178090
O	-0.249720	-1.073480	-0.313820
H	-0.399760	-1.460110	0.565970
    6  
step number 1
N	0.232750	1.143950	0.244230
H	0.220360	1.133720	1.261280
H	1.201130	1.132750	-0.066590
H	-0.291880	0.312930	-0.175580
O	-0.249700	-1.072060	-0.313660
H	-0.400700	-1.459450	0.565470
    6  
step number 2
N	0.232320	1.143110	0.243880
H	0.221770	1.134870	1.261390
H	1.201520	1.134320	-0.065780
H	-0.287170	0.299480	-0.173430
O	-0.249680	-1.070690	-0.313520
H	-0.401580	-1.458750	0.564990
    6  
step number 3
N	0.231940	1.142400	0.243580
H	0.223150	1.135910	1.261560
H	1.201960	1.135670	-0.064990
H	-0.283130	0.285480	-0.171780
O	-0.249660	-1.069380	-0.313390
H	-0.402390	-1.458030	0.564530
    6  
step number 4
N	0.231620	1.141830	0.243320
H	0.224490	1.136860	1.261790
H	1.202430	1.136830	-0.064240
H	-0.279900	0.270950	-0.170700
O	-0.249650	-1.068150	-0.313260
H	-0.403130	-1.457300	0.564070
    6  
step number 5
N	0.231360	1.141410	0.243130
H	0.225760	1.137710	1.262070
H	1.202920	1.137810	-0.063550
H	-0.277560	0.255980	-0.170260
O	-0.249640	-1.067000	-0.313150
H	-0.403790	-1.456580	0.563630
    6  
step number 6
N	0.231170	1.141140	0.242990
H	0.226940	1.138490	1.262400
H	1.203430	1.138650	-0.062920
H	-0.276100	0.240680	-0.170430
O	-0.249630	-1.065950	-0.313050
H	-0.404400	-1.455890	0.563190
    6  
step number 7
N	0.231040	1.141000	0.242900
H	0.228050	1.139210	1.262760
H	1.203950	1.139390	-0.062350
H	-0.275430	0.225200	-0.171140
O	-0.249630	-1.064980	-0.312960
H	-0.404940	-1.455220	0.562770
    6  
step number 8
N	0.230970	1.140960	0.242850
H	0.229080	1.139890	1.263140
H	1.204470	1.140040	-0.061830
H	-0.275440	0.209620	-0.172290
O	-0.249630	-1.064090	-0.312880
H	-0.405440	-1.454580	0.562360
    6  
step number 9
N	0.230940	1.141010	0.242850
H	0.230070	1.140570	1.263490
H	1.205010	1.140620	-0.061340
H	-0.276040	0.194010	-0.173790
O	-0.249640	-1.063270	-0.312810
H	-0.405900	-1.453970	0.561920
    6  
step number 10
N	0.000000	0.000000	0.000000
H	0.000000	0.000000	1.021000
H	0.974550	0.000000	-0.303790
H	-0.508230	-0.962770	-0.418640
O	-0.480610	-2.203730	-0.555640
H	-0.637300	-2.594580	0.318640
    6  
step number 11
N	0.231000	1.141350	0.242930
H	0.231860	1.141790	1.264290
H	1.206020	1.141740	-0.060470
H	-0.278490	0.162810	-0.177720
O	-0.249650	-1.061820	-0.312690
H	-0.406760	-1.452820	0.561140
    6  
step number 12
N	0.231070	1.141630	0.243010
H	0.232680	1.142340	1.264740
H	1.206490	1.142290	-0.060090
H	-0.280200	0.147260	-0.180040
O	-0.249670	-1.061190	-0.312640
H	-0.407180	-1.452260	0.560780
    6  
step number 13
N	0.231170	1.141950	0.243110
H	0.233500	1.142930	1.265150
H	1.206970	1.142820	-0.059710
H	-0.282210	0.131760	-0.182510
O	-0.249680	-1.060590	-0.312600
H	-0.407580	-1.451720	0.560400
    6  
step number 14
N	0.231290	1.142300	0.243220
H	0.234310	1.143530	1.265550
H	1.207450	1.143350	-0.059330
H	-0.284460	0.116310	-0.185100
O	-0.249700	-1.060040	-0.312560
H	-0.407990	-1.451200	0.560020
    6  
step number 15
N	0.231420	1.142710	0.243350
H	0.235110	1.144150	1.265960
H	1.207930	1.143870	-0.058960
H	-0.286920	0.100900	-0.187820
O	-0.249710	-1.059520	-0.312530
H	-0.408390	-1.450690	0.559630
    6  
step number 16
N	0.231570	1.143150	0.243500
H	0.235930	1.144790	1.266370
H	1.208400	1.144410	-0.058590
H	-0.289600	0.085550	-0.190630
O	-0.249740	-1.059050	-0.312500
H	-0.408800	-1.450200	0.559240
    6  
step number 17
N	0.231740	1.143630	0.243660
H	0.236760	1.145460	1.266790
H	1.208880	1.144970	-0.058210
H	-0.292480	0.070260	-0.193560
O	-0.249760	-1.058620	-0.312490
H	-0.409230	-1.449710	0.558850
    6  
step number 18
N	0.231930	1.144170	0.243840
H	0.237630	1.146150	1.267210
H	1.209370	1.145540	-0.057820
H	-0.295600	0.055060	-0.196590
O	-0.249780	-1.058240	-0.312480
H	-0.409680	-1.449220	0.558460
    6  
step number 19
N	0.232130	1.144760	0.244040
H	0.238530	1.146890	1.267640
H	1.209860	1.146130	-0.057420
H	-0.298990	0.039950	-0.199740
O	-0.249800	-1.057920	-0.312480
H	-0.410160	-1.448740	0.558060
    6  
step number 20
N	0.232360	1.145410	0.244260
H	0.239500	1.147680	1.268090
H	1.210370	1.146760	-0.056990
H	-0.302700	0.024980	-0.203020
O	-0.249830	-1.057670	-0.312490
H	-0.410690	-1.448250	0.557650
